data_image0
_chemical_formula_structural       C17SC12PC4PC12Ag
_chemical_formula_sum              "C45 S1 P2 Ag1"
_cell_length_a       12.336457
_cell_length_b       12.336457
_cell_length_c       15.0
_cell_angle_alpha    90.0
_cell_angle_beta     90.0
_cell_angle_gamma    119.99999999999999

_space_group_name_H-M_alt    "P 1"
_space_group_IT_number       1

loop_
  _space_group_symop_operation_xyz
  'x, y, z'

loop_
  _atom_site_type_symbol
  _atom_site_label
  _atom_site_symmetry_multiplicity
  _atom_site_fract_x
  _atom_site_fract_y
  _atom_site_fract_z
  _atom_site_occupancy
  C   C1        1.0  0.998001720051781  0.9967281392615132  0.24648081866666666  1.0000
  C   C2        1.0  0.9999086555042396  0.1987407312416951  0.24242216533333333  1.0000
  C   C3        1.0  0.0002113186703846291  0.39868168692040157  0.24845138866666666  1.0000
  C   C4        1.0  0.999251164855421  0.5979003319087177  0.24751875066666665  1.0000
  C   C5        1.0  0.9966614350188635  0.7961006578580064  0.24477010666666665  1.0000
  C   C6        1.0  0.19519583339539368  0.9927056601845146  0.2606123126666667  1.0000
  C   C7        1.0  0.1972121188010044  0.19052797143742037  0.23861985666666663  1.0000
  C   C8        1.0  0.2006928606006615  0.4031579869336967  0.23718178266666667  1.0000
  C   C9        1.0  0.19873425978183876  0.5996502561838435  0.2558610653333333  1.0000
  C   C10       1.0  0.19747137636642417  0.7970668488165135  0.260118208  1.0000
  C   C11       1.0  0.3981205491352567  0.9971337970413193  0.26889188333333336  1.0000
  C   C12       1.0  0.39297987112235166  0.1909231300310022  0.27304361466666666  1.0000
  C   C13       1.0  0.39867759640264644  0.6017285765085719  0.26505844866666667  1.0000
  C   C14       1.0  0.3987405332229286  0.7988325419951176  0.2631126893333333  1.0000
  C   C15       1.0  0.5996131506078768  0.9995513102519787  0.26341439666666666  1.0000
  C   C16       1.0  0.5992516492079245  0.19901395718927153  0.26348507066666665  1.0000
  C   C17       1.0  0.6050315000394224  0.4017955712700711  0.235716322  1.0000
  S   S1        1.0  0.5893513331055549  0.5984525149723872  0.16923542266666666  1.0000
  C   C18       1.0  0.6000979396260844  0.8005992900531794  0.24854676  1.0000
  C   C19       1.0  0.7997958332754724  0.9994137678236196  0.250520448  1.0000
  C   C20       1.0  0.799795968361588  0.19886720351979342  0.254476196  1.0000
  C   C21       1.0  0.800263198723995  0.3980878010179129  0.24605096533333332  1.0000
  C   C22       1.0  0.801953402212759  0.5988835226194048  0.22434506333333332  1.0000
  C   C23       1.0  0.7989511062659671  0.7988754157782146  0.23337682533333334  1.0000
  C   C24       1.0  0.06520879910958756  0.1303404901807813  0.24189673333333334  1.0000
  C   C25       1.0  0.0681565374434358  0.33280814798606057  0.24249293733333332  1.0000
  C   C26       1.0  0.06608451188438376  0.531770716540039  0.251328722  1.0000
  C   C27       1.0  0.06464453102455235  0.7305121441706574  0.25086625  1.0000
  C   C28       1.0  0.06299926625423659  0.9285668452744483  0.25087489933333335  1.0000
  C   C29       1.0  0.2611069899457258  0.12443782746778566  0.25980597133333333  1.0000
  P   P1        1.0  0.29133950338209724  0.34040367601080246  0.19235577599999998  1.0000
  C   C30       1.0  0.2682206217839238  0.535346924510115  0.25191739733333335  1.0000
  C   C31       1.0  0.265174709765711  0.7318809565035043  0.26136812266666665  1.0000
  C   C32       1.0  0.26418215527021127  0.9291798088638069  0.264951442  1.0000
  C   C33       1.0  0.46515045377237857  0.13088426790502916  0.2706286746666667  1.0000
  P   P2        1.0  0.4559370027486412  0.35237173835526586  0.2814489293333333  1.0000
  C   C34       1.0  0.4655263225076346  0.731058230087223  0.25773297666666667  1.0000
  C   C35       1.0  0.4657234311457214  0.9319369511394809  0.266101372  1.0000
  C   C36       1.0  0.6661690997376286  0.13276905575757572  0.26175378  1.0000
  C   C37       1.0  0.666729157373798  0.3315190918410516  0.24961840599999996  1.0000
  C   C38       1.0  0.6723607991290114  0.5288753111109108  0.21006728266666666  1.0000
  C   C39       1.0  0.6672557297532586  0.7398155950455949  0.22427522066666666  1.0000
  C   C40       1.0  0.6666954388152955  0.9333286263699577  0.2559724093333333  1.0000
  C   C41       1.0  0.8670523370223227  0.13287699416864854  0.24990620866666668  1.0000
  C   C42       1.0  0.8670682586811217  0.33189095042191347  0.25044801266666666  1.0000
  C   C43       1.0  0.8670639774916991  0.5311375745200286  0.238948144  1.0000
  C   C44       1.0  0.8651096830056647  0.7313600257647738  0.2311286406666667  1.0000
  C   C45       1.0  0.865478945579102  0.9318435133429206  0.24452985666666666  1.0000
  Ag  Ag1       1.0  0.4596223398688196  0.5149396430484181  0.36191924533333336  1.0000
