data_image0
_chemical_formula_structural       C12PC17SC4PC12Ag
_chemical_formula_sum              "C45 P2 S1 Ag1"
_cell_length_a       12.336457
_cell_length_b       12.336457
_cell_length_c       15.0
_cell_angle_alpha    90.0
_cell_angle_beta     90.0
_cell_angle_gamma    119.99999999999999

_space_group_name_H-M_alt    "P 1"
_space_group_IT_number       1

loop_
  _space_group_symop_operation_xyz
  'x, y, z'

loop_
  _atom_site_type_symbol
  _atom_site_label
  _atom_site_symmetry_multiplicity
  _atom_site_fract_x
  _atom_site_fract_y
  _atom_site_fract_z
  _atom_site_occupancy
  C   C1        1.0  0.9996911424441736  0.9986642343167771  0.235250588  1.0000
  C   C2        1.0  0.0004891414844659251  0.2004979554324277  0.22365972866666667  1.0000
  C   C3        1.0  0.9988919573680552  0.40019366333734996  0.23264902666666665  1.0000
  C   C4        1.0  0.99885706100554  0.598674830584052  0.243699904  1.0000
  C   C5        1.0  0.9991640232140289  0.7974763367353966  0.24271511866666667  1.0000
  C   C6        1.0  0.19729833138488242  0.9938226577211516  0.24766892066666665  1.0000
  C   C7        1.0  0.19769766264184396  0.1900876392924832  0.22159248266666662  1.0000
  C   C8        1.0  0.19724769493156774  0.4026104605029473  0.211190042  1.0000
  C   C9        1.0  0.201793645467471  0.5977281759556576  0.24561324333333331  1.0000
  C   C10       1.0  0.20020993134947007  0.7962095566118685  0.25285219  1.0000
  C   C11       1.0  0.39928393878303015  0.9973255613970013  0.2600968833333333  1.0000
  C   C12       1.0  0.3921682714455062  0.19152358857195625  0.26891533666666667  1.0000
  P   P1        1.0  0.4269303958736145  0.5786608684629344  0.27550864533333325  1.0000
  C   C13       1.0  0.4020606153788584  0.7985335421693321  0.2623978046666666  1.0000
  C   C14       1.0  0.6011106295042727  0.003258378499173947  0.254957848  1.0000
  C   C15       1.0  0.5988926025442619  0.20172306828538825  0.261395026  1.0000
  C   C16       1.0  0.6024882575088518  0.40599091485713906  0.269702762  1.0000
  C   C17       1.0  0.5950266636779639  0.607006528749164  0.25386133466666666  1.0000
  C   C18       1.0  0.6058305827590934  0.8079802610251059  0.25569422066666664  1.0000
  C   C19       1.0  0.8023464228240375  0.003518524690282807  0.24045762266666668  1.0000
  C   C20       1.0  0.7998366917690102  0.20202323811944511  0.24191335133333333  1.0000
  C   C21       1.0  0.7982202165715282  0.4010299113052222  0.247644444  1.0000
  C   C22       1.0  0.7967930202332647  0.6006743803359101  0.24593005199999998  1.0000
  C   C23       1.0  0.801560159004384  0.8018044491170762  0.24204208133333335  1.0000
  C   C24       1.0  0.06646682709725457  0.1320024354499377  0.2257622273333333  1.0000
  C   C25       1.0  0.06542629041471572  0.33307165069689837  0.220103698  1.0000
  C   C26       1.0  0.06695490269769507  0.5327015816728093  0.24030536266666666  1.0000
  C   C27       1.0  0.066412966000687  0.7311458094183668  0.24644113199999995  1.0000
  C   C28       1.0  0.06500176062437281  0.9299541942823406  0.24100766133333332  1.0000
  C   C29       1.0  0.2623115815582739  0.1259815887974382  0.247131302  1.0000
  S   S1        1.0  0.28383810312063174  0.3355303575587772  0.172986754  1.0000
  C   C30       1.0  0.26723927480808807  0.5287132687093486  0.23684846199999995  1.0000
  C   C31       1.0  0.2680382279423712  0.7304543214258782  0.2559340586666667  1.0000
  C   C32       1.0  0.26571840301134575  0.9289274923680502  0.2550764246666667  1.0000
  C   C33       1.0  0.4648944490143492  0.13139584887366135  0.2651465666666667  1.0000
  P   P2        1.0  0.4531976843687382  0.338986020980661  0.31534141866666665  1.0000
  C   C34       1.0  0.47536460418633125  0.7389523975752028  0.267567746  1.0000
  C   C35       1.0  0.4675246549986292  0.9328842151081831  0.26015873133333334  1.0000
  C   C36       1.0  0.6666350729932444  0.13629140403488946  0.25268172733333333  1.0000
  C   C37       1.0  0.6651218235469883  0.33552401892196615  0.25963942533333334  1.0000
  C   C38       1.0  0.6617611128472045  0.5375166683451639  0.254963626  1.0000
  C   C39       1.0  0.66905569481201  0.7378848464601282  0.249090864  1.0000
  C   C40       1.0  0.6701891004115632  0.9395227493754381  0.25008673400000003  1.0000
  C   C41       1.0  0.8682132384460532  0.13602608640722103  0.23470608733333329  1.0000
  C   C42       1.0  0.8653771134252984  0.334626505576977  0.24012826866666667  1.0000
  C   C43       1.0  0.8643312570678343  0.5338575470369302  0.24485407733333334  1.0000
  C   C44       1.0  0.8659781275305265  0.7329258965067292  0.24181732066666667  1.0000
  C   C45       1.0  0.8674434090035187  0.9346335216189415  0.23851089  1.0000
  Ag  Ag1       1.0  0.40964023460427834  0.4687446192477455  0.40994874866666664  1.0000
