data_image0
_chemical_formula_structural       C12PSC4SC30Cr
_chemical_formula_sum              "C46 P1 S2 Cr1"
_cell_length_a       12.336457
_cell_length_b       12.336457
_cell_length_c       15.0
_cell_angle_alpha    90.0
_cell_angle_beta     90.0
_cell_angle_gamma    119.99999999999999

_space_group_name_H-M_alt    "P 1"
_space_group_IT_number       1

loop_
  _space_group_symop_operation_xyz
  'x, y, z'

loop_
  _atom_site_type_symbol
  _atom_site_label
  _atom_site_symmetry_multiplicity
  _atom_site_fract_x
  _atom_site_fract_y
  _atom_site_fract_z
  _atom_site_occupancy
  C   C1        1.0  0.9989893973325527  0.9993428054179494  0.264468408  1.0000
  C   C2        1.0  0.9967777459601003  0.19785591950650033  0.26357928466666664  1.0000
  C   C3        1.0  0.9968598939971687  0.3986704314408307  0.2650242173333333  1.0000
  C   C4        1.0  0.9982863667482957  0.599083344120047  0.26544855533333334  1.0000
  C   C5        1.0  0.9990605663002804  0.7991548118814112  0.264788486  1.0000
  C   C6        1.0  0.19813113080148725  0.9987744593920156  0.25272499266666665  1.0000
  C   C7        1.0  0.19498089762862322  0.19632675239202185  0.23707790933333334  1.0000
  C   C8        1.0  0.19085352037169842  0.39347019770167113  0.23765693799999998  1.0000
  C   C9        1.0  0.19727405921769328  0.5980700907488313  0.25206882266666664  1.0000
  C   C10       1.0  0.19897758296384302  0.7982661709431458  0.25787397866666667  1.0000
  C   C11       1.0  0.3977364493279818  0.9998271261298648  0.25383713599999996  1.0000
  C   C12       1.0  0.3972441321661366  0.19681388018778187  0.23211625  1.0000
  P   P1        1.0  0.38679139681353364  0.38487213545349286  0.14586537266666666  1.0000
  S   S1        1.0  0.4077294901858203  0.5908525362361811  0.21238258200000001  1.0000
  C   C13       1.0  0.3985755897373874  0.8014823533280133  0.24719394733333333  1.0000
  C   C14       1.0  0.5981324692052045  0.001861420447350212  0.26122016  1.0000
  C   C15       1.0  0.5974423310393867  0.19898058200132496  0.25458031200000003  1.0000
  C   C16       1.0  0.5985574305297712  0.39530661741227807  0.23057230533333334  1.0000
  S   S2        1.0  0.6227352621394387  0.6160572316292944  0.1683700946666667  1.0000
  C   C17       1.0  0.6019599739537921  0.8078921434901571  0.24873087466666668  1.0000
  C   C18       1.0  0.7995917192598284  0.0014669807068503384  0.26920074266666666  1.0000
  C   C19       1.0  0.7976150343684981  0.1998777986322164  0.2684897906666667  1.0000
  C   C20       1.0  0.7973656273652204  0.3988274016225346  0.2625212693333333  1.0000
  C   C21       1.0  0.7991919312879919  0.5994751078176284  0.25904284666666666  1.0000
  C   C22       1.0  0.8003555347266508  0.8007705549279399  0.2649915453333333  1.0000
  C   C23       1.0  0.06362654876688761  0.13133931126596757  0.2571120866666667  1.0000
  C   C24       1.0  0.06104571643072522  0.3300589570865988  0.25810351200000003  1.0000
  C   C25       1.0  0.06370521078508284  0.5317913779501054  0.2622885106666667  1.0000
  C   C26       1.0  0.06545291435259894  0.7321286481905658  0.26337258333333335  1.0000
  C   C27       1.0  0.06533421461158151  0.9323079242580831  0.261384302  1.0000
  C   C28       1.0  0.26357507025781013  0.13062053400055687  0.23880982666666667  1.0000
  C   C29       1.0  0.2536492634585606  0.325550120547286  0.21630986266666663  1.0000
  C   C30       1.0  0.25392127171751333  0.5251546922959194  0.23859915266666668  1.0000
  C   C31       1.0  0.2653914425781973  0.7317821104607103  0.25167004  1.0000
  C   C32       1.0  0.26463923539349693  0.9319465480153264  0.254818948  1.0000
  C   C33       1.0  0.46446231180122577  0.13227997919603887  0.24817286733333335  1.0000
  C   C34       1.0  0.4675861062269747  0.3270634710219484  0.211714078  1.0000
  C   C35       1.0  0.47278755582885035  0.7459864582866398  0.23539625666666666  1.0000
  C   C36       1.0  0.4652449764651779  0.934847315826364  0.25526968733333333  1.0000
  C   C37       1.0  0.6645470541935377  0.1340310023429331  0.2635457586666667  1.0000
  C   C38       1.0  0.6647194066611614  0.33162995620880953  0.25069225733333333  1.0000
  C   C39       1.0  0.6662979344049985  0.5303768735182373  0.23995275933333332  1.0000
  C   C40       1.0  0.6664501610376098  0.7369935070147856  0.2513662313333333  1.0000
  C   C41       1.0  0.6670776588922721  0.9378826748368972  0.2622688926666667  1.0000
  C   C42       1.0  0.8646479579404471  0.13339882160171837  0.26972780599999996  1.0000
  C   C43       1.0  0.8638381903172065  0.33264201055554854  0.2676605386666666  1.0000
  C   C44       1.0  0.8645890591085547  0.5324164029207322  0.264197106  1.0000
  C   C45       1.0  0.8649869572299013  0.7323078925217372  0.2638381713333333  1.0000
  C   C46       1.0  0.8659241397514026  0.9335997191584539  0.2690965433333333  1.0000
  Cr  Cr1       1.0  0.5429904283736275  0.5714021961156006  0.31884935  1.0000
