data_image0
_chemical_formula_structural       C12OC4NC12OC4SC12Cu
_chemical_formula_sum              "C44 O2 N1 S1 Cu1"
_cell_length_a       12.336457
_cell_length_b       12.336457
_cell_length_c       15.0
_cell_angle_alpha    90.0
_cell_angle_beta     90.0
_cell_angle_gamma    119.99999999999999

_space_group_name_H-M_alt    "P 1"
_space_group_IT_number       1

loop_
  _space_group_symop_operation_xyz
  'x, y, z'

loop_
  _atom_site_type_symbol
  _atom_site_label
  _atom_site_symmetry_multiplicity
  _atom_site_fract_x
  _atom_site_fract_y
  _atom_site_fract_z
  _atom_site_occupancy
  C   C1        1.0  0.9999027710878731  0.0007023409892140969  0.256941766  1.0000
  C   C2        1.0  0.9981169328604604  0.19949721272565654  0.25902396533333333  1.0000
  C   C3        1.0  0.9993961701231286  0.399843625878753  0.25964978866666666  1.0000
  C   C4        1.0  0.0012157497193438917  0.600588720754338  0.25829784066666667  1.0000
  C   C5        1.0  0.0014810068094317753  0.801741170389726  0.25773856666666667  1.0000
  C   C6        1.0  0.20076975275230954  0.0033189175351559094  0.25400850666666663  1.0000
  C   C7        1.0  0.19721963520882319  0.2009984194504684  0.253300438  1.0000
  C   C8        1.0  0.1959712135386025  0.4008017924525313  0.2643606946666667  1.0000
  C   C9        1.0  0.19908087911750227  0.5993873094609361  0.26375144466666667  1.0000
  C   C10       1.0  0.2007577833986212  0.8006234970563113  0.25953115466666665  1.0000
  C   C11       1.0  0.3995690710493438  0.00022746458406556455  0.24903542666666667  1.0000
  C   C12       1.0  0.39608060135220774  0.19545546782445763  0.22178281733333333  1.0000
  O   O1        1.0  0.3929606373025334  0.6011382287110959  0.26458955  1.0000
  C   C13       1.0  0.3988422725992748  0.7982146568829661  0.2583659973333333  1.0000
  C   C14       1.0  0.598247372900881  0.9972402677940163  0.25087441466666666  1.0000
  C   C15       1.0  0.599462151132404  0.1996388866872235  0.235866668  1.0000
  C   C16       1.0  0.6112749844677483  0.40606677444942996  0.21542669266666667  1.0000
  N   N1        1.0  0.6085206043669149  0.5998458357024968  0.24106566333333335  1.0000
  C   C17       1.0  0.5944443901024854  0.7923577162212033  0.25436594333333334  1.0000
  C   C18       1.0  0.797037076328786  0.9970400204103634  0.25493950266666665  1.0000
  C   C19       1.0  0.7983826826992196  0.19886667374004816  0.25181981266666664  1.0000
  C   C20       1.0  0.8010882206933707  0.4003019518148976  0.24701324933333335  1.0000
  C   C21       1.0  0.8052900091681119  0.6028214082263681  0.24678064933333332  1.0000
  C   C22       1.0  0.7992894995029942  0.7985326323709003  0.25333525733333334  1.0000
  C   C23       1.0  0.06713079194865025  0.13519852551676226  0.2573510113333333  1.0000
  C   C24       1.0  0.06549440678783737  0.3329536062223805  0.26170193733333336  1.0000
  C   C25       1.0  0.06616514989022433  0.5324807870718973  0.26124710733333334  1.0000
  C   C26       1.0  0.06749275028016304  0.7343225241482171  0.25930285466666664  1.0000
  C   C27       1.0  0.06764413690457302  0.935708148008035  0.257605288  1.0000
  C   C28       1.0  0.2664115180652747  0.13780863612899302  0.24450849733333332  1.0000
  O   O2        1.0  0.25951107786342437  0.33181888820846817  0.264970502  1.0000
  C   C29       1.0  0.26154327867324123  0.5318245313044837  0.2651878246666667  1.0000
  C   C30       1.0  0.26591737691910955  0.7330662095146748  0.26124637533333334  1.0000
  C   C31       1.0  0.26684337659534463  0.9351430789412677  0.25468945066666665  1.0000
  C   C32       1.0  0.46560972137542433  0.13363709799821824  0.23530978266666666  1.0000
  S   S1        1.0  0.466448611188992  0.33448373461565484  0.15960602466666665  1.0000
  C   C33       1.0  0.462990868160541  0.7316466010387236  0.2585031406666667  1.0000
  C   C34       1.0  0.4659339544340055  0.9323126248833145  0.2529263426666667  1.0000
  C   C35       1.0  0.6648821191449933  0.13233497800885413  0.24639222466666666  1.0000
  C   C36       1.0  0.6683300831816427  0.3339446200763734  0.23302326  1.0000
  C   C37       1.0  0.6747408782121134  0.5381669907666315  0.23287057266666666  1.0000
  C   C38       1.0  0.6651914039917166  0.7270182860627554  0.2502448273333333  1.0000
  C   C39       1.0  0.6627806549836012  0.9278013874870287  0.25362100666666665  1.0000
  C   C40       1.0  0.8651100145188946  0.13185326781939402  0.25581899  1.0000
  C   C41       1.0  0.8659090894971904  0.3325779287345208  0.25341541466666667  1.0000
  C   C42       1.0  0.8687585609556683  0.5337767724738928  0.2511133486666667  1.0000
  C   C43       1.0  0.868822602944707  0.735044021448857  0.25356009533333335  1.0000
  C   C44       1.0  0.865313735256735  0.9321365180463235  0.2559052686666667  1.0000
  Cu  Cu1       1.0  0.44664734479794815  0.4629630149505748  0.25166101199999996  1.0000
