data_image0
_chemical_formula_structural       C12OC4NC12SC4OC12Cu
_chemical_formula_sum              "C44 O2 N1 S1 Cu1"
_cell_length_a       12.336457
_cell_length_b       12.336457
_cell_length_c       15.0
_cell_angle_alpha    90.0
_cell_angle_beta     90.0
_cell_angle_gamma    119.99999999999999

_space_group_name_H-M_alt    "P 1"
_space_group_IT_number       1

loop_
  _space_group_symop_operation_xyz
  'x, y, z'

loop_
  _atom_site_type_symbol
  _atom_site_label
  _atom_site_symmetry_multiplicity
  _atom_site_fract_x
  _atom_site_fract_y
  _atom_site_fract_z
  _atom_site_occupancy
  C   C1        1.0  6.13349985150706e-05  0.9997627822269841  0.24927182466666667  1.0000
  C   C2        1.0  0.0012968603572345368  0.20040633255269788  0.23455360666666666  1.0000
  C   C3        1.0  0.9995717410677325  0.4005072545702897  0.24310235333333333  1.0000
  C   C4        1.0  0.9986607305263121  0.6001959751858151  0.2560839053333333  1.0000
  C   C5        1.0  0.9993034986589022  0.8003372250485055  0.25967148  1.0000
  C   C6        1.0  0.2016433620623295  0.0024920081053026546  0.25837752399999997  1.0000
  C   C7        1.0  0.2011314878986095  0.19613370383526108  0.22730399266666668  1.0000
  C   C8        1.0  0.1966199031937187  0.4091867756023425  0.212662694  1.0000
  C   C9        1.0  0.1970728753568356  0.6031595396807954  0.24204405533333334  1.0000
  C   C10       1.0  0.19943569170394712  0.8009090024746979  0.2581213173333333  1.0000
  C   C11       1.0  0.40008310976726913  0.9997611891437218  0.26001512266666665  1.0000
  C   C12       1.0  0.40367037898725  0.19878977611641888  0.260308494  1.0000
  O   O1        1.0  0.3917737916721774  0.606016282420597  0.22483683799999998  1.0000
  C   C13       1.0  0.39850700522976434  0.799375680426846  0.25218877466666667  1.0000
  C   C14       1.0  0.5996202131486239  0.9967620404851787  0.2546523626666667  1.0000
  C   C15       1.0  0.6013807856617122  0.19809748503025273  0.2609842533333333  1.0000
  C   C16       1.0  0.6037650362167328  0.397617049593926  0.26808791000000004  1.0000
  N   N1        1.0  0.6034730601191315  0.5974103240205969  0.26432891  1.0000
  C   C17       1.0  0.5944663072058959  0.7923640745141536  0.25128328066666666  1.0000
  C   C18       1.0  0.7987303173042823  0.9971096845748557  0.248767816  1.0000
  C   C19       1.0  0.8007864990724705  0.19865439679935196  0.25003947066666665  1.0000
  C   C20       1.0  0.8004499952149006  0.3992450955114302  0.25813723666666666  1.0000
  C   C21       1.0  0.7995311274381603  0.5987752032536386  0.26266251133333335  1.0000
  C   C22       1.0  0.7976815528034952  0.7969850802144487  0.25661284866666667  1.0000
  C   C23       1.0  0.06867879853706853  0.13381001773267787  0.23647700800000002  1.0000
  C   C24       1.0  0.06650806008599176  0.33488535539892117  0.22975929866666667  1.0000
  C   C25       1.0  0.06410285236716577  0.5335105665759448  0.24740500066666668  1.0000
  C   C26       1.0  0.06563117124042848  0.7337674750322859  0.25877246  1.0000
  C   C27       1.0  0.06725743399522197  0.9345554858112659  0.256512362  1.0000
  C   C28       1.0  0.2711326961935677  0.1369190226798524  0.251344764  1.0000
  S   S1        1.0  0.27905923046807557  0.3387066314295108  0.17084716866666666  1.0000
  C   C29       1.0  0.25983928830199293  0.5392593881773575  0.224232674  1.0000
  C   C30       1.0  0.2651520200484534  0.7352213319903576  0.2517615066666667  1.0000
  C   C31       1.0  0.2671162195466136  0.9349542995106876  0.26066384600000003  1.0000
  C   C32       1.0  0.46809207387717827  0.1335869336595804  0.261649322  1.0000
  O   O2        1.0  0.47326220057516216  0.32765801025705577  0.27626253733333334  1.0000
  C   C33       1.0  0.463046145001345  0.7339417398082543  0.2457460833333333  1.0000
  C   C34       1.0  0.46678478686039493  0.9325950929602282  0.25689291933333336  1.0000
  C   C35       1.0  0.6670876455138353  0.13153196482793592  0.255790998  1.0000
  C   C36       1.0  0.6672444429521607  0.3314584826045734  0.26278198399999997  1.0000
  C   C37       1.0  0.666439590347697  0.5309526486286911  0.26581636  1.0000
  C   C38       1.0  0.6633205665184739  0.7254046743032938  0.2568987266666667  1.0000
  C   C39       1.0  0.6640970508559354  0.9276791759110515  0.2516628146666666  1.0000
  C   C40       1.0  0.8677957920308638  0.1321785441589418  0.24431392066666666  1.0000
  C   C41       1.0  0.8666471773570941  0.33238787727094815  0.2508624133333333  1.0000
  C   C42       1.0  0.8654117473459892  0.5321651862327507  0.25955794466666665  1.0000
  C   C43       1.0  0.8655785512228317  0.7322721632771486  0.2600844153333333  1.0000
  C   C44       1.0  0.8653606142241648  0.931130898745077  0.2513042093333333  1.0000
  Cu  Cu1       1.0  0.4326621517568664  0.47468684415242685  0.26214865066666665  1.0000
