data_image0
_chemical_formula_structural       C12NC4SC12OC4OC12Cu
_chemical_formula_sum              "C44 N1 S1 O2 Cu1"
_cell_length_a       12.336457
_cell_length_b       12.336457
_cell_length_c       15.0
_cell_angle_alpha    90.0
_cell_angle_beta     90.0
_cell_angle_gamma    119.99999999999999

_space_group_name_H-M_alt    "P 1"
_space_group_IT_number       1

loop_
  _space_group_symop_operation_xyz
  'x, y, z'

loop_
  _atom_site_type_symbol
  _atom_site_label
  _atom_site_symmetry_multiplicity
  _atom_site_fract_x
  _atom_site_fract_y
  _atom_site_fract_z
  _atom_site_occupancy
  C   C1        1.0  3.140505959366559e-06  0.9998818563087808  0.247206586  1.0000
  C   C2        1.0  0.0006902662843280469  0.19985768853004768  0.255708234  1.0000
  C   C3        1.0  0.00124866184565351  0.399773313061675  0.2567541646666667  1.0000
  C   C4        1.0  0.9992738261692067  0.599239228534075  0.24962658866666668  1.0000
  C   C5        1.0  0.9974473399513833  0.7988825752928291  0.24299853800000001  1.0000
  C   C6        1.0  0.20109458109545308  0.0042428150346683225  0.247524442  1.0000
  C   C7        1.0  0.1988350041460234  0.20202952901991872  0.2515979213333333  1.0000
  C   C8        1.0  0.19902273274181403  0.39886245694235894  0.26222951466666666  1.0000
  C   C9        1.0  0.19914436447897949  0.5991847641810382  0.25809670733333334  1.0000
  C   C10       1.0  0.19797246928978326  0.7999356613616427  0.2514291026666666  1.0000
  C   C11       1.0  0.39826434898180324  0.9995923101498283  0.2522523973333333  1.0000
  C   C12       1.0  0.4030628163991735  0.20027377435957497  0.24485976466666667  1.0000
  N   N1        1.0  0.3953653183450489  0.6033424522218993  0.2751726606666667  1.0000
  C   C13       1.0  0.3969792294859976  0.7986671739620449  0.25701706599999996  1.0000
  C   C14       1.0  0.5985250906253937  0.9978437543163767  0.2563672673333333  1.0000
  C   C15       1.0  0.599904559558854  0.196799060395013  0.2511892766666667  1.0000
  C   C16       1.0  0.6018837775589174  0.39172400809294766  0.235529328  1.0000
  S   S1        1.0  0.5789220122888664  0.5856701483991834  0.18411408266666665  1.0000
  C   C17       1.0  0.5965148925352566  0.7974895306846714  0.24971612066666668  1.0000
  C   C18       1.0  0.7991313967646055  0.9982687368887998  0.2520476213333333  1.0000
  C   C19       1.0  0.8003037151738485  0.19844832745454047  0.255827252  1.0000
  C   C20       1.0  0.8012556670648981  0.39830613485742855  0.24910607266666668  1.0000
  C   C21       1.0  0.7979121700865798  0.596390551363293  0.23577533466666667  1.0000
  C   C22       1.0  0.7970655202291512  0.7977644807564367  0.23645856133333334  1.0000
  C   C23       1.0  0.06840268097725762  0.1346785860090392  0.2516755413333333  1.0000
  C   C24       1.0  0.06849490981653922  0.33332407670542924  0.259101998  1.0000
  C   C25       1.0  0.06662084494055244  0.5325918760812434  0.25506097866666666  1.0000
  C   C26       1.0  0.06471028771837874  0.732675908795436  0.24777837533333333  1.0000
  C   C27       1.0  0.06674919553221793  0.9343026657439492  0.24530857466666667  1.0000
  C   C28       1.0  0.2699942428566573  0.14044489876610605  0.24771304466666663  1.0000
  O   O1        1.0  0.2603868551365129  0.3314091204236064  0.25815310266666663  1.0000
  C   C29       1.0  0.2673010310640574  0.5331499952988786  0.26541099133333335  1.0000
  C   C30       1.0  0.2641459402417752  0.7325405865747727  0.2558341593333333  1.0000
  C   C31       1.0  0.265320833017401  0.9347154175179064  0.2501207733333333  1.0000
  C   C32       1.0  0.4662018508857261  0.13326357426158447  0.249458454  1.0000
  O   O2        1.0  0.47219999514246963  0.3289707726416565  0.23766226399999998  1.0000
  C   C33       1.0  0.4610914967961737  0.7295203206709407  0.25977628733333336  1.0000
  C   C34       1.0  0.46491986362252447  0.9322429326386237  0.25530900666666667  1.0000
  C   C35       1.0  0.666129131026027  0.13118921605286638  0.2552273246666667  1.0000
  C   C36       1.0  0.6676268032789265  0.32887694265832346  0.2464160353333333  1.0000
  C   C37       1.0  0.6659088230988097  0.5224631013716619  0.22608161466666665  1.0000
  C   C38       1.0  0.6638725953235651  0.7355859702161751  0.23001432200000002  1.0000
  C   C39       1.0  0.6649754866661162  0.9311989183459429  0.25420306933333336  1.0000
  C   C40       1.0  0.8675657861561933  0.13247023283704096  0.2553472706666667  1.0000
  C   C41       1.0  0.8678524627828854  0.3320066108875775  0.254430054  1.0000
  C   C42       1.0  0.8660871590814386  0.531179826794732  0.24537104933333334  1.0000
  C   C43       1.0  0.8636523852101897  0.730808876988416  0.236625766  1.0000
  C   C44       1.0  0.8655850802100916  0.9320562835591041  0.2458376213333333  1.0000
  Cu  Cu1       1.0  0.4804063321969187  0.5211367266428284  0.317125688  1.0000
