data_image0
_chemical_formula_structural       C12B2C4NC30Ni
_chemical_formula_sum              "C46 B2 N1 Ni1"
_cell_length_a       12.336457
_cell_length_b       12.336457
_cell_length_c       15.0
_cell_angle_alpha    90.0
_cell_angle_beta     90.0
_cell_angle_gamma    119.99999999999999

_space_group_name_H-M_alt    "P 1"
_space_group_IT_number       1

loop_
  _space_group_symop_operation_xyz
  'x, y, z'

loop_
  _atom_site_type_symbol
  _atom_site_label
  _atom_site_symmetry_multiplicity
  _atom_site_fract_x
  _atom_site_fract_y
  _atom_site_fract_z
  _atom_site_occupancy
  C   C1        1.0  0.9995096755380702  0.9994079683266199  0.23937182533333334  1.0000
  C   C2        1.0  0.9965509793466083  0.19756475218408687  0.23672238599999998  1.0000
  C   C3        1.0  0.9965794738268946  0.3987517900719972  0.23671695466666665  1.0000
  C   C4        1.0  0.9995265736138116  0.5999199552584867  0.23940568266666662  1.0000
  C   C5        1.0  0.001082728995310702  0.8004183113017466  0.24067877599999996  1.0000
  C   C6        1.0  0.2006662372256926  0.000575484012396085  0.24419973266666667  1.0000
  C   C7        1.0  0.1977185883470547  0.1986267780521007  0.24533873066666667  1.0000
  C   C8        1.0  0.1927418221382776  0.3962348364543418  0.24544941866666664  1.0000
  C   C9        1.0  0.1976934496118024  0.5988243286249315  0.245280524  1.0000
  C   C10       1.0  0.2007132298338206  0.7998493634235577  0.24431911666666667  1.0000
  C   C11       1.0  0.400124553645531  0.9999190822279503  0.24864295  1.0000
  C   C12       1.0  0.4003267838432249  0.20079636557404434  0.25346927733333335  1.0000
  B   B1        1.0  0.39518055472656055  0.39928718117695566  0.27114293866666667  1.0000
  B   B2        1.0  0.39518896854045305  0.5956561381073435  0.27096398  1.0000
  C   C13       1.0  0.40033234422533887  0.7992773922439956  0.25351222333333334  1.0000
  C   C14       1.0  0.5994856377552173  0.9991662942260999  0.24814206666666666  1.0000
  C   C15       1.0  0.5994510707753761  0.20004970279949646  0.24808631666666667  1.0000
  C   C16       1.0  0.6014977226574784  0.40203447572701106  0.25878455933333333  1.0000
  N   N1        1.0  0.6162857145730487  0.6080425486093276  0.279410016  1.0000
  C   C17       1.0  0.6015077524936839  0.7991939004537487  0.25868166466666664  1.0000
  C   C18       1.0  0.7989044206634719  0.9986666370457633  0.24264901533333333  1.0000
  C   C19       1.0  0.7979683104550599  0.19888959841411463  0.23970499399999998  1.0000
  C   C20       1.0  0.7989242587056213  0.4000305604402907  0.24257555266666667  1.0000
  C   C21       1.0  0.8016276213202123  0.6014265814616115  0.246900088  1.0000
  C   C22       1.0  0.8016890776788365  0.7999834351393805  0.24687247133333334  1.0000
  C   C23       1.0  0.06439193106249563  0.13177145896904466  0.23910199866666665  1.0000
  C   C24       1.0  0.06096673483132472  0.3303460649483138  0.23715137133333333  1.0000
  C   C25       1.0  0.06437420447394279  0.5323934052381496  0.23903797533333335  1.0000
  C   C26       1.0  0.06737590533514447  0.7334391987915302  0.240943954  1.0000
  C   C27       1.0  0.06732221429988887  0.9336914094306601  0.24079617  1.0000
  C   C28       1.0  0.26676548607751166  0.1338531732537667  0.24825676866666668  1.0000
  C   C29       1.0  0.2584808264573459  0.33000008039836887  0.25107109466666666  1.0000
  C   C30       1.0  0.25843728143533323  0.5282029045493187  0.2511175033333333  1.0000
  C   C31       1.0  0.26677472899327925  0.7326381250163226  0.24828777000000002  1.0000
  C   C32       1.0  0.26707800168374346  0.9334068287868114  0.24584816133333334  1.0000
  C   C33       1.0  0.46651812889242195  0.13331178421840578  0.250257118  1.0000
  C   C34       1.0  0.46936218317383815  0.33395832695727445  0.26161613933333333  1.0000
  C   C35       1.0  0.4693734640604409  0.7351645819091617  0.26161158733333334  1.0000
  C   C36       1.0  0.4665523908033165  0.9329512837263262  0.25028165933333335  1.0000
  C   C37       1.0  0.6653825763541795  0.13257801680702191  0.24460557466666666  1.0000
  C   C38       1.0  0.666479979671898  0.33401311423259433  0.24924697333333334  1.0000
  C   C39       1.0  0.6709555912532545  0.5368350346303402  0.2610719886666667  1.0000
  C   C40       1.0  0.6710040978608149  0.7338947560201015  0.2609721526666666  1.0000
  C   C41       1.0  0.6664756520110343  0.932202233198898  0.24929435533333333  1.0000
  C   C42       1.0  0.8640054684284082  0.13150388462942236  0.23830084933333331  1.0000
  C   C43       1.0  0.8640425982954137  0.3323115478033353  0.23823396533333333  1.0000
  C   C44       1.0  0.8663833058924344  0.5334497074256997  0.2417783  1.0000
  C   C45       1.0  0.867964966480698  0.7338432382158954  0.24396227266666667  1.0000
  C   C46       1.0  0.8663814221954101  0.9327258661887322  0.2417411933333333  1.0000
  Ni  Ni1       1.0  0.48357962804974625  0.5418378692539826  0.35243579466666664  1.0000
