data_image0
_chemical_formula_structural       C12SC4SC12NC4NC12Re
_chemical_formula_sum              "C44 S2 N2 Re1"
_cell_length_a       12.336457
_cell_length_b       12.336457
_cell_length_c       15.0
_cell_angle_alpha    90.0
_cell_angle_beta     90.0
_cell_angle_gamma    119.99999999999999

_space_group_name_H-M_alt    "P 1"
_space_group_IT_number       1

loop_
  _space_group_symop_operation_xyz
  'x, y, z'

loop_
  _atom_site_type_symbol
  _atom_site_label
  _atom_site_symmetry_multiplicity
  _atom_site_fract_x
  _atom_site_fract_y
  _atom_site_fract_z
  _atom_site_occupancy
  C   C1        1.0  0.9995561871586764  0.997085807046053  0.26322156333333335  1.0000
  C   C2        1.0  0.9976225768729586  0.19544183582408592  0.277474666  1.0000
  C   C3        1.0  0.0002006756327222054  0.3989070146013602  0.274745768  1.0000
  C   C4        1.0  0.0026597843504444596  0.598582794925404  0.2617359753333333  1.0000
  C   C5        1.0  0.0009921742167995423  0.7984373057129868  0.253103778  1.0000
  C   C6        1.0  0.2024815633474266  0.0012452650754271126  0.2574769946666667  1.0000
  C   C7        1.0  0.1975278635578802  0.19547946141808084  0.272075  1.0000
  C   C8        1.0  0.19334840226164  0.3904445207435855  0.26651505999999997  1.0000
  C   C9        1.0  0.20433133844462625  0.5983521039265293  0.25931988466666667  1.0000
  C   C10       1.0  0.20246800552623964  0.798795854279753  0.2532108106666667  1.0000
  C   C11       1.0  0.40106162057831374  0.0018820584572510483  0.25268899466666667  1.0000
  C   C12       1.0  0.4037522301657715  0.2078303869732036  0.25192678199999996  1.0000
  S   S1        1.0  0.41261215417794234  0.633187174841781  0.11738698933333333  1.0000
  C   C13       1.0  0.40207737868797566  0.8008449983422192  0.235162398  1.0000
  C   C14       1.0  0.6006893226428152  0.00048235228999945427  0.25347059  1.0000
  C   C15       1.0  0.5999466323633237  0.1996738484063861  0.26131008933333333  1.0000
  C   C16       1.0  0.5982332199336491  0.39580801743693594  0.24660992533333334  1.0000
  S   S2        1.0  0.5974453693518308  0.5906669214439735  0.17573061533333334  1.0000
  C   C17       1.0  0.6042845018336767  0.8050694105507884  0.22258150733333334  1.0000
  C   C18       1.0  0.7998381841957837  0.9983340607906085  0.25976621066666666  1.0000
  C   C19       1.0  0.7995198330886356  0.19874708298259885  0.2711892146666666  1.0000
  C   C20       1.0  0.8002132258318079  0.3989829415861276  0.2664422026666666  1.0000
  C   C21       1.0  0.8022344197745995  0.598056797582855  0.24673966666666666  1.0000
  C   C22       1.0  0.8013185305893383  0.7993846492422513  0.23918266666666668  1.0000
  C   C23       1.0  0.06390870189463028  0.12884788442077416  0.27342865266666666  1.0000
  C   C24       1.0  0.06313999983398733  0.3286220886486278  0.27908284533333333  1.0000
  C   C25       1.0  0.0692941369678647  0.5319329189987326  0.2668039873333334  1.0000
  C   C26       1.0  0.06883030124623515  0.7318872333638787  0.25612376066666664  1.0000
  C   C27       1.0  0.06820819756731814  0.9325061816916683  0.25769213933333335  1.0000
  C   C28       1.0  0.2693322818653076  0.1354486274208628  0.26028035866666666  1.0000
  N   N1        1.0  0.25647569977248724  0.3223819337737243  0.27104227999999997  1.0000
  C   C29       1.0  0.2682118822282088  0.5279692333053749  0.26045375  1.0000
  C   C30       1.0  0.26951132695003505  0.7319283755347341  0.24809520066666665  1.0000
  C   C31       1.0  0.26819119819090226  0.9333757486870898  0.2531716366666667  1.0000
  C   C32       1.0  0.46748845307958625  0.1360660211295404  0.25508422  1.0000
  N   N2        1.0  0.4700878815406611  0.3365375839833852  0.24117078533333333  1.0000
  C   C33       1.0  0.47163819434244225  0.7416509917009695  0.20602096333333333  1.0000
  C   C34       1.0  0.4678097732785089  0.9342460841439444  0.24733475866666668  1.0000
  C   C35       1.0  0.6666934751678296  0.13288415929930258  0.26377944933333336  1.0000
  C   C36       1.0  0.6667248942028482  0.33162145633271944  0.26162483733333336  1.0000
  C   C37       1.0  0.6716369004944958  0.5262936972201381  0.23315025066666667  1.0000
  C   C38       1.0  0.6730640905915181  0.7425043433177563  0.21668459133333334  1.0000
  C   C39       1.0  0.6679056357818272  0.9345138569169694  0.247871294  1.0000
  C   C40       1.0  0.8653962172694081  0.13072163301127843  0.2715532806666667  1.0000
  C   C41       1.0  0.8665501626050821  0.33218826917981453  0.27315738533333334  1.0000
  C   C42       1.0  0.868880332372457  0.5318718426949525  0.260526066  1.0000
  C   C43       1.0  0.8677372229678578  0.7317275160027537  0.24444022266666665  1.0000
  C   C44       1.0  0.8665182264855816  0.9316563419717087  0.255332948  1.0000
  Re  Re1       1.0  0.37837459429123566  0.47416708903800747  0.220674954  1.0000
