data_image0
_chemical_formula_structural       C17BC12BC17V
_chemical_formula_sum              "C46 B2 V1"
_cell_length_a       12.336457
_cell_length_b       12.336457
_cell_length_c       15.0
_cell_angle_alpha    90.0
_cell_angle_beta     90.0
_cell_angle_gamma    119.99999999999999

_space_group_name_H-M_alt    "P 1"
_space_group_IT_number       1

loop_
  _space_group_symop_operation_xyz
  'x, y, z'

loop_
  _atom_site_type_symbol
  _atom_site_label
  _atom_site_symmetry_multiplicity
  _atom_site_fract_x
  _atom_site_fract_y
  _atom_site_fract_z
  _atom_site_occupancy
  C   C1        1.0  0.99968116913277  0.999497779097539  0.24260725933333335  1.0000
  C   C2        1.0  7.359993752651039e-05  0.19996577015013287  0.24395961333333332  1.0000
  C   C3        1.0  0.9996079982406597  0.40017388738954357  0.24419084933333332  1.0000
  C   C4        1.0  0.9994642067066924  0.5999206853436481  0.24382712533333328  1.0000
  C   C5        1.0  0.9994768471241848  0.7996296208940834  0.24323027666666666  1.0000
  C   C6        1.0  0.19988304746644428  0.9991954789124218  0.24719770866666665  1.0000
  C   C7        1.0  0.19921439773160812  0.19667497586979493  0.24903224266666665  1.0000
  C   C8        1.0  0.1990793419938888  0.4027361587035734  0.25325798266666666  1.0000
  C   C9        1.0  0.19895642497008986  0.6015843238487746  0.2479655146666666  1.0000
  C   C10       1.0  0.19956433815007513  0.8003548743892778  0.24638834466666668  1.0000
  C   C11       1.0  0.4001676372976232  0.000264513597984332  0.24988302333333332  1.0000
  C   C12       1.0  0.40102406756393244  0.20251834630762264  0.25637995066666663  1.0000
  C   C13       1.0  0.39764632112303305  0.5985855617609643  0.2633312233333333  1.0000
  C   C14       1.0  0.3994302118384304  0.7994935292759808  0.25165535066666667  1.0000
  C   C15       1.0  0.5997698291394882  0.9996410358462957  0.248111228  1.0000
  C   C16       1.0  0.600179599336713  0.19871629585294862  0.2489910433333333  1.0000
  C   C17       1.0  0.6002148922233954  0.3973158904008749  0.25561997066666664  1.0000
  B   B1        1.0  0.5950111842140042  0.5976704346434544  0.26018874533333336  1.0000
  C   C18       1.0  0.5997494534103962  0.8009692803648335  0.251839956  1.0000
  C   C19       1.0  0.7999144791093482  0.9999643147477224  0.24368010666666665  1.0000
  C   C20       1.0  0.8000011202482851  0.1995138474352559  0.24400870266666666  1.0000
  C   C21       1.0  0.8002439616559386  0.3991513207524876  0.24517752666666667  1.0000
  C   C22       1.0  0.7998375909706242  0.5991962162219985  0.24680767866666664  1.0000
  C   C23       1.0  0.8001670104176092  0.8001900670241688  0.244889888  1.0000
  C   C24       1.0  0.06625906395172793  0.13270291191397043  0.24422238066666668  1.0000
  C   C25       1.0  0.06654631353245334  0.33369317874680376  0.24601995200000001  1.0000
  C   C26       1.0  0.06612848556023677  0.5337319181007939  0.24479312466666667  1.0000
  C   C27       1.0  0.06637646875131092  0.7333509876559198  0.24408897999999998  1.0000
  C   C28       1.0  0.0664803241426741  0.9329256755212884  0.2436613086666667  1.0000
  C   C29       1.0  0.2666657364918013  0.13191367207042312  0.25151475  1.0000
  B   B2        1.0  0.27134366562353884  0.3352212151652887  0.259226312  1.0000
  C   C30       1.0  0.26614491847793564  0.5355631738628942  0.254917572  1.0000
  C   C31       1.0  0.266180581253159  0.7341483660770031  0.248704366  1.0000
  C   C32       1.0  0.26661773666819344  0.9331996137699007  0.24808026533333333  1.0000
  C   C33       1.0  0.46692964012928323  0.1333629173238923  0.2518377473333333  1.0000
  C   C34       1.0  0.46866018590884934  0.3342699984406424  0.2636041493333333  1.0000
  C   C35       1.0  0.4653492026850431  0.7303693254729976  0.25639244133333333  1.0000
  C   C36       1.0  0.4662231624491072  0.9325839657135638  0.249879892  1.0000
  C   C37       1.0  0.6668023615153429  0.1324969754820986  0.246546414  1.0000
  C   C38       1.0  0.6674169408561961  0.33130087219434334  0.24855625333333334  1.0000
  C   C39       1.0  0.667293503198449  0.5301518837356674  0.25417748333333334  1.0000
  C   C40       1.0  0.6672233128445636  0.7362147897576279  0.24983398533333334  1.0000
  C   C41       1.0  0.666525586689258  0.9336703511537882  0.247373446  1.0000
  C   C42       1.0  0.8669340674135314  0.13325312842773748  0.24291096599999995  1.0000
  C   C43       1.0  0.8669081603287596  0.3329554089711252  0.24375346466666667  1.0000
  C   C44       1.0  0.8667721284740214  0.5327146005888468  0.24465880066666665  1.0000
  C   C45       1.0  0.8663537921006372  0.7329262774614222  0.24462334533333333  1.0000
  C   C46       1.0  0.8666991079282244  0.9333796967630009  0.24277170266666664  1.0000
  V   V1        1.0  0.432831795788115  0.46624865745049204  0.3192775546666667  1.0000
